testData/tamu2000/pfcases_100_zone3/Equ_tx2000_hr_4635_mod_v23_zone3_pslf.raw
0  100.000 
THIS IS A SYNTHETIC POWER SYSTEM MODEL THAT DOES NOT REPRESE
DATA RESEARCH PROJECT AND CONTAINS NO CEII.
1004,  2,  44.520,  -20.473,  0.000,  0.000,  1,  1.02550,  -26.9991,  'O DONNEL',  230.00,  9
1009,  2,  23.440,  -3.321,  0.000,  0.000,  1,  1.00979,  -26.4935,  'IRAAN 2 ',  13.800,  9
1021,  2,  35.487,  -13.703,  0.000,  0.000,  1,  1.00825,  -24.5044,  'BIG SPRI',  13.800,  9
1023,  2,  31.809,  -4.624,  0.000,  0.000,  1,  1.01000,  -19.9619,  'O DONNEL',  13.800,  9
1026,  2,  29.830,  -9.655,  0.000,  0.000,  1,  1.00505,  -22.9585,  'BIG SPRI',  13.800,  9
1033,  2,  159.334,  -28.074,  0.000,  0.000,  1,  1.00000,  -31.9693,  'MCCAMEY ',  230.00,  9
1035,  2,  39.372,  -12.025,  0.000,  0.000,  1,  1.00365,  -23.2371,  'BIG SPRI',  13.800,  9
1039,  2,  21.991,  -7.963,  0.000,  0.000,  1,  1.00000,  -24.3848,  'FORT STO',  22.000,  9
1042,  2,  42.061,  -6.031,  0.000,  0.000,  1,  1.00000,  -19.9010,  'FORSAN 1',  13.800,  9
1048,  2,  54.531,  -6.972,  0.000,  0.000,  1,  1.00000,  -26.2801,  'MONAHANS',  18.000,  9
1049,  2,  34.213,  -1.991,  0.000,  0.000,  1,  1.00000,  -23.4072,  'MONAHANS',  18.000,  9
1053,  2,  34.506,  -8.214,  0.000,  0.000,  1,  1.00724,  -30.3748,  'MONAHANS',  230.00,  9
1057,  2,  57.008,  -15.190,  0.000,  0.000,  1,  1.00542,  -24.9706,  'LENORAH ',  18.000,  9
1066,  2,  43.128,  -7.366,  0.000,  0.000,  1,  1.00000,  -20.1817,  'BIG SPRI',  13.800,  9
1070,  2,  46.240,  -1.253,  0.000,  0.000,  1,  1.04000,  -26.1867,  'IRAAN 1 ',  13.800,  9
1072,  3,  42.610,  -0.966,  0.000,  0.000,  1,  1.01000,  -27.7579,  'ODESSA 1',  18.000,  9
1073,  2,  25.601,  -2.613,  0.000,  0.000,  1,  1.01000,  -30.8102,  'ODESSA 1',  18.000,  9
1074,  2,  26.772,  -1.372,  0.000,  0.000,  1,  1.01000,  -31.0249,  'ODESSA 1',  18.000,  9
1075,  2,  32.688,  -1.759,  0.000,  0.000,  1,  1.01000,  -31.8309,  'ODESSA 1',  18.000,  9
1076,  2,  67.186,  -5.021,  0.000,  0.000,  1,  1.01000,  -33.4564,  'ODESSA 1',  18.000,  9
1077,  2,  27.550,  -1.654,  0.000,  0.000,  1,  1.01000,  -31.1523,  'ODESSA 1',  18.000,  9
1081,  2,  61.339,  -21.843,  0.000,  0.000,  1,  1.01000,  -31.4499,  'ODESSA 1',  230.00,  9
1082,  2,  64.595,  -29.009,  0.000,  0.000,  1,  1.01860,  -26.7338,  'FORT STO',  115.00,  9
1084,  2,  101.256,  -35.761,  0.000,  0.000,  1,  1.03668,  -30.0095,  'BIG SPRI',  115.00,  9
1088,  2,  41.802,  -6.807,  0.000,  0.000,  1,  1.00000,  -28.0284,  'MCCAMEY ',  115.00,  9
1090,  2,  123.195,  -4.009,  0.000,  0.000,  1,  1.02000,  -35.1134,  'GOLDSMIT',  115.00,  9
2004,  2,  86.786,  -24.685,  0.000,  0.000,  2,  1.02189,  -47.5149,  'SAVOY 2 ',  13.800,  11
2005,  2,  75.144,  -21.593,  0.000,  0.000,  2,  1.02091,  -47.3523,  'SAVOY 3 ',  13.800,  11
2006,  2,  55.308,  -15.159,  0.000,  0.000,  2,  1.02000,  -46.7332,  'SAVOY 4 ',  13.800,  11
2013,  2,  2.677,  -9.353,  0.000,  0.000,  2,  1.04178,  -32.1709,  'PANHANDL',  18.000,  10
2019,  2,  0.896,  33.530,  0.000,  0.000,  2,  1.04000,  -31.3393,  'PANHANDL',  20.000,  10
2024,  2,  62.338,  -19.939,  0.000,  0.000,  2,  1.02658,  -47.7972,  'PARIS 2 ',  13.800,  11
2057,  3,  151.742,  -89.297,  0.000,  0.000,  2,  0.99000,  -38.8045,  'WICHITA ',  18.000,  11
2059,  2,  0.940,  -0.396,  0.000,  0.000,  2,  1.02456,  -28.8235,  'WHITE DE',  13.800,  10
2062,  2,  68.792,  -23.196,  0.000,  0.000,  2,  1.02000,  -34.0461,  'VERNON 1',  18.000,  10
2071,  2,  40.122,  -11.598,  0.000,  0.000,  2,  1.00000,  -36.5632,  'ARCHER 2',  18.000,  11
2078,  2,  79.154,  -17.066,  0.000,  0.000,  2,  1.02000,  -46.5973,  'MUENSTER',  13.800,  11
2089,  2,  27.850,  -7.057,  0.000,  0.000,  2,  1.00000,  -36.6948,  'ARCHER 1',  24.000,  11
2100,  2,  8.309,  8.290,  0.000,  0.000,  2,  1.02092,  -27.5892,  'RALLS 1 ',  18.000,  10
2103,  2,  121.428,  -26.644,  0.000,  0.000,  2,  1.02540,  -48.3581,  'SHERMAN ',  20.000,  11
2104,  2,  91.301,  -20.350,  0.000,  0.000,  2,  1.02426,  -48.1876,  'SHERMAN ',  20.000,  11
2105,  2,  56.464,  -13.471,  0.000,  0.000,  2,  1.02162,  -47.7653,  'SHERMAN ',  20.000,  11
2115,  2,  42.614,  -14.403,  0.000,  0.000,  2,  1.02361,  -47.2348,  'PARIS 1 ',  13.800,  11
2116,  2,  74.239,  -24.082,  0.000,  0.000,  2,  1.02719,  -47.7960,  'PARIS 1 ',  13.800,  11
2117,  2,  37.763,  -12.345,  0.000,  0.000,  2,  1.02213,  -47.0540,  'PARIS 1 ',  13.800,  11
2118,  2,  36.637,  -12.161,  0.000,  0.000,  2,  1.02121,  -46.9063,  'PARIS 1 ',  13.800,  11
2119,  2,  60.264,  -20.179,  0.000,  0.000,  2,  1.02633,  -47.6642,  'PARIS 1 ',  13.800,  11
2120,  2,  36.710,  -12.226,  0.000,  0.000,  2,  1.02166,  -46.9642,  'PARIS 1 ',  13.800,  11
2123,  2,  13.205,  1.164,  0.000,  0.000,  2,  1.03371,  -30.5048,  'PANHANDL',  161.00,  10
2127,  2,  190.192,  -180.192,  0.000,  0.000,  2,  1.05182,  -33.5468,  'MIAMI 0 ',  500.00,  10
3017,  2,  35.784,  2.597,  0.000,  0.000,  3,  1.01000,  -27.6468,  'BLACKWEL',  18.000,  27
3020,  2,  128.138,  -4.569,  0.000,  0.000,  3,  1.03000,  -37.2233,  'CHRISTOV',  13.800,  27
3028,  2,  55.845,  0.888,  0.000,  0.000,  3,  1.04000,  -36.7848,  'ABILENE ',  18.000,  27
3034,  2,  26.417,  -1.940,  0.000,  0.000,  3,  1.03000,  -20.6302,  'SNYDER 1',  22.000,  27
3039,  2,  28.138,  -5.291,  0.000,  0.000,  3,  1.04000,  -30.1167,  'ROSCOE 2',  13.800,  27
3045,  2,  9.658,  -0.366,  0.000,  0.000,  3,  1.04000,  -30.0087,  'SILVER 4',  13.800,  27
3048,  2,  585.543,  -645.299,  0.000,  0.000,  3,  1.04160,  -42.0733,  'ROSCOE 5',  500.00,  27
3055,  2,  42.736,  0.493,  0.000,  0.000,  3,  1.04000,  -32.1826,  'WINGATE ',  13.800,  27
3056,  2,  30.273,  1.761,  0.000,  0.000,  3,  1.04000,  -30.6608,  'WINGATE ',  13.800,  27
3057,  2,  30.851,  1.472,  0.000,  0.000,  3,  1.04000,  -30.7566,  'WINGATE ',  13.800,  27
3060,  2,  16.578,  0.730,  0.000,  0.000,  3,  1.04000,  -28.0534,  'STERLING',  18.000,  27
3061,  2,  18.487,  1.021,  0.000,  0.000,  3,  1.04000,  -29.3334,  'STERLING',  18.000,  27
3062,  2,  25.777,  -1.471,  0.000,  0.000,  3,  1.04000,  -30.9156,  'STERLING',  18.000,  27
3063,  2,  21.197,  1.136,  0.000,  0.000,  3,  1.04000,  -30.2339,  'STERLING',  18.000,  27
3065,  2,  6.632,  -6.319,  0.000,  0.000,  3,  1.01342,  -25.8573,  'ROSCOE 4',  18.000,  27
3068,  2,  26.579,  0.271,  0.000,  0.000,  3,  1.04000,  -27.3499,  'TRENT 1 ',  20.000,  27
3071,  2,  21.209,  -3.326,  0.000,  0.000,  3,  1.00741,  -27.2899,  'NOLAN 1 ',  24.000,  27
3074,  2,  54.606,  -14.649,  0.000,  0.000,  3,  1.00970,  -71.0178,  'BRACKETT',  13.800,  28
3081,  2,  17.592,  -2.920,  0.000,  0.000,  3,  1.04000,  -28.2150,  'HERMLEIG',  20.000,  27
3084,  2,  18.686,  -8.616,  0.000,  0.000,  3,  1.00000,  -28.4177,  'MERKEL 1',  13.800,  27
3086,  2,  12.851,  -2.969,  0.000,  0.000,  3,  1.00490,  -23.9918,  'LORAINE ',  13.200,  27
3087,  2,  13.740,  -2.871,  0.000,  0.000,  3,  1.00561,  -23.1807,  'LORAINE ',  13.200,  27
3092,  2,  33.787,  6.401,  0.000,  0.000,  3,  1.04000,  -33.2964,  'ABILENE ',  13.800,  27
3095,  2,  20.317,  4.452,  0.000,  0.000,  3,  1.04000,  -27.2971,  'MERKEL 2',  18.000,  27
3098,  2,  10.239,  -1.600,  0.000,  0.000,  3,  1.04000,  -22.8304,  'FLUVANNA',  13.800,  27
3106,  3,  8.171,  -5.067,  0.000,  0.000,  3,  1.00000,  -59.6545,  'BUCHANAN',  13.200,  28
3110,  2,  10.742,  -2.100,  0.000,  0.000,  3,  1.04000,  -23.6073,  'FLUVANNA',  13.800,  27
3112,  2,  11.146,  -4.873,  0.000,  0.000,  3,  1.00972,  -25.7395,  'STERLING',  18.000,  27
3113,  2,  11.146,  -4.873,  0.000,  0.000,  3,  1.00972,  -25.7395,  'STERLING',  18.000,  27
3118,  2,  28.686,  -7.935,  0.000,  0.000,  3,  1.00163,  -22.5799,  'SYNDER 2',  13.800,  27
3122,  2,  16.819,  -1.612,  0.000,  0.000,  3,  1.00000,  -21.2886,  'ROSCOE 1',  18.000,  27
3127,  2,  10.807,  -3.118,  0.000,  0.000,  3,  1.02032,  -26.8542,  'SWEETWAT',  115.00,  27
3129,  2,  22.480,  -36.139,  0.000,  0.000,  3,  1.02630,  -27.0918,  'ROSCOE 3',  115.00,  27
3131,  2,  120.848,  -20.401,  0.000,  0.000,  3,  1.02000,  -30.5272,  'TUSOCOLA',  115.00,  27
3137,  2,  99.894,  -17.863,  0.000,  0.000,  3,  1.03000,  -31.2933,  'SWEETWAT',  115.00,  27
3141,  2,  43.138,  -15.014,  0.000,  0.000,  3,  1.02223,  -27.8733,  'SWEETWAT',  115.00,  27
4010,  2,  41.769,  -6.172,  0.000,  0.000,  4,  1.03000,  -79.0783,  'SARITA 3',  20.000,  21
4026,  2,  154.213,  -13.038,  0.000,  0.000,  4,  1.03000,  -62.9696,  'CHRISTIN',  13.800,  20
4030,  3,  159.563,  -30.531,  0.000,  0.000,  4,  1.01000,  -59.2371,  'FANNIN 2',  13.800,  21
4050,  2,  20.453,  -7.746,  0.000,  0.000,  4,  1.01056,  -89.9179,  'SEBASTIA',  13.800,  19
4058,  2,  24.569,  1.744,  0.000,  0.000,  4,  1.03000,  -72.5534,  'GREGORY ',  13.800,  21
4059,  2,  28.747,  1.509,  0.000,  0.000,  4,  1.03000,  -72.7652,  'GREGORY ',  13.800,  21
4060,  2,  20.430,  1.213,  0.000,  0.000,  4,  1.03000,  -71.9489,  'GREGORY ',  13.800,  21
4061,  2,  25.254,  1.783,  0.000,  0.000,  4,  1.03000,  -72.3100,  'GREGORY ',  13.800,  21
4062,  2,  24.009,  1.081,  0.000,  0.000,  4,  1.03000,  -71.9087,  'GREGORY ',  13.800,  21
4063,  2,  24.851,  2.076,  0.000,  0.000,  4,  1.03000,  -72.2813,  'GREGORY ',  13.800,  21
4082,  2,  20.399,  -0.502,  0.000,  0.000,  4,  1.04000,  -77.7672,  'CORPUS C',  13.800,  21
4083,  2,  21.794,  -0.570,  0.000,  0.000,  4,  1.04000,  -77.9220,  'CORPUS C',  13.800,  21
4084,  2,  30.251,  -4.238,  0.000,  0.000,  4,  1.04000,  -78.7432,  'CORPUS C',  13.800,  21
4085,  2,  39.289,  -5.872,  0.000,  0.000,  4,  1.04000,  -78.5089,  'CORPUS C',  13.800,  21
4105,  2,  91.488,  4.679,  0.000,  0.000,  4,  1.01000,  -74.0334,  'TAFT 2 1',  18.000,  21
4115,  2,  92.990,  -1.239,  0.000,  0.000,  4,  1.04000,  -77.2181,  'LAREDO 1',  13.800,  20
4116,  2,  88.499,  -1.977,  0.000,  0.000,  4,  1.04000,  -77.1645,  'LAREDO 1',  13.800,  20
4142,  2,  92.896,  -9.495,  0.000,  0.000,  4,  1.04000,  -79.6720,  'SARITA 1',  13.800,  21
4153,  2,  235.847,  -25.955,  0.000,  0.000,  4,  1.04000,  -81.5085,  'ARMSTRON',  18.000,  21
4160,  2,  81.100,  7.629,  0.000,  0.000,  4,  1.03000,  -75.0271,  'CORPUS C',  13.800,  21
4161,  2,  42.211,  3.850,  0.000,  0.000,  4,  1.03000,  -73.8974,  'CORPUS C',  13.800,  21
4162,  2,  42.663,  2.997,  0.000,  0.000,  4,  1.03000,  -73.9201,  'CORPUS C',  13.800,  21
4166,  2,  33.702,  -5.494,  0.000,  0.000,  4,  1.01448,  -78.2463,  'SARITA 2',  13.800,  21
4177,  2,  69.751,  -3.053,  0.000,  0.000,  4,  1.04000,  -75.0207,  'BRUNI 1 ',  13.800,  20
4181,  2,  141.818,  -16.299,  0.000,  0.000,  4,  1.02636,  -73.1753,  'TAFT 1 0',  230.00,  21
4183,  2,  283.242,  -36.967,  0.000,  0.000,  4,  1.02763,  -84.6980,  'SAN PERL',  230.00,  19
4192,  2,  689.825,  2.669,  0.000,  0.000,  4,  1.02000,  -87.5789,  'BROWNSVI',  230.00,  19
4194,  2,  640.232,  -94.905,  0.000,  0.000,  4,  1.02000,  -92.3704,  'SEBASTIA',  115.00,  19
4195,  2,  423.076,  -132.555,  0.000,  0.000,  4,  1.02918,  -72.9986,  'OILTON 0',  500.00,  20
5020,  2,  57.765,  -21.074,  0.000,  0.000,  5,  1.02429,  -43.0037,  'JACKSBOR',  13.800,  12
5037,  2,  189.960,  -12.958,  0.000,  0.000,  5,  1.02452,  -48.7321,  'DALLAS 1',  13.200,  16
5038,  2,  184.348,  -12.161,  0.000,  0.000,  5,  1.02434,  -48.6943,  'DALLAS 1',  13.200,  16
5039,  2,  454.380,  -37.736,  0.000,  0.000,  5,  1.02679,  -49.3806,  'DALLAS 1',  13.200,  16
5040,  2,  142.406,  -9.647,  0.000,  0.000,  5,  1.02318,  -48.3115,  'DALLAS 1',  13.200,  16
5041,  2,  203.611,  -15.221,  0.000,  0.000,  5,  1.02490,  -48.8034,  'DALLAS 1',  13.200,  16
5042,  2,  171.714,  -11.121,  0.000,  0.000,  5,  1.02400,  -48.6063,  'DALLAS 1',  13.200,  16
5057,  2,  91.114,  -38.384,  0.000,  0.000,  5,  1.02410,  -44.1941,  'GRAHAM 2',  13.800,  12
5058,  2,  68.777,  -27.216,  0.000,  0.000,  5,  1.02199,  -43.8777,  'GRAHAM 3',  13.800,  12
5067,  2,  289.828,  -30.924,  0.000,  0.000,  5,  1.03000,  -48.9344,  'ARLINGTO',  13.800,  17
5068,  2,  274.423,  -30.137,  0.000,  0.000,  5,  1.03000,  -48.8956,  'ARLINGTO',  13.800,  17
5069,  2,  257.053,  -27.915,  0.000,  0.000,  5,  1.03000,  -48.8443,  'ARLINGTO',  13.800,  17
5166,  2,  127.412,  -21.500,  0.000,  0.000,  5,  1.04000,  -49.0449,  'DENTON 1',  13.800,  17
5170,  2,  73.595,  -8.472,  0.000,  0.000,  5,  1.01975,  -48.2494,  'DUBLIN 1',  18.000,  15
5198,  2,  112.358,  -38.753,  0.000,  0.000,  5,  1.02643,  -45.2226,  'BRYSON 1',  18.000,  12
5206,  2,  82.107,  -20.527,  0.000,  0.000,  5,  1.02392,  -46.4625,  'POOLVILL',  13.800,  12
5207,  2,  146.325,  -37.449,  0.000,  0.000,  5,  1.02635,  -46.8381,  'POOLVILL',  13.800,  12
5208,  2,  117.402,  -29.766,  0.000,  0.000,  5,  1.02561,  -46.7259,  'POOLVILL',  13.800,  12
5238,  2,  120.005,  -90.875,  0.000,  0.000,  5,  1.02607,  -41.9583,  'OLNEY 1 ',  18.000,  12
5243,  2,  133.002,  -39.667,  0.000,  0.000,  5,  1.03060,  -51.7649,  'GOLDTHWA',  13.800,  18
5262,  2,  285.365,  -25.636,  0.000,  0.000,  5,  1.01747,  -41.0164,  'GLEN ROS',  13.800,  18
5263,  2,  383.071,  -39.282,  0.000,  0.000,  5,  1.02015,  -42.2369,  'GLEN ROS',  13.800,  18
5281,  2,  122.351,  -18.433,  0.000,  0.000,  5,  1.02223,  -53.8172,  'TEMPLE 1',  13.800,  13
5282,  2,  145.722,  -22.112,  0.000,  0.000,  5,  1.02315,  -53.9514,  'TEMPLE 1',  13.800,  13
5283,  2,  188.963,  -30.120,  0.000,  0.000,  5,  1.02438,  -54.1231,  'TEMPLE 1',  13.800,  13
5298,  2,  252.622,  -31.759,  0.000,  0.000,  5,  1.04000,  -49.8457,  'MCKINNEY',  13.800,  16
5299,  2,  103.399,  -9.195,  0.000,  0.000,  5,  1.04000,  -49.6352,  'MCKINNEY',  13.800,  16
5300,  2,  126.268,  -12.038,  0.000,  0.000,  5,  1.04000,  -49.7048,  'MCKINNEY',  13.800,  16
5302,  2,  147.286,  -12.766,  0.000,  0.000,  5,  1.04000,  -48.7390,  'MCKINNEY',  13.800,  16
5303,  2,  207.041,  -22.208,  0.000,  0.000,  5,  1.04000,  -49.0698,  'MCKINNEY',  13.800,  16
5319,  2,  154.828,  -18.369,  0.000,  0.000,  5,  1.01964,  -46.1877,  'GRANBURY',  13.200,  18
5320,  2,  139.909,  -18.110,  0.000,  0.000,  5,  1.01921,  -46.0978,  'GRANBURY',  13.200,  18
5321,  2,  157.118,  -18.475,  0.000,  0.000,  5,  1.01990,  -46.2230,  'GRANBURY',  13.200,  18
5324,  2,  155.970,  -6.202,  0.000,  0.000,  5,  1.04000,  -48.2959,  'DALLAS 2',  13.800,  17
5325,  2,  155.977,  -5.062,  0.000,  0.000,  5,  1.04000,  -48.2924,  'DALLAS 2',  13.800,  17
5326,  2,  473.777,  -45.971,  0.000,  0.000,  5,  1.04000,  -49.4901,  'DALLAS 2',  13.800,  17
5360,  3,  141.819,  -31.888,  0.000,  0.000,  5,  1.01000,  -50.9287,  'RIESEL 1',  13.800,  13
5364,  2,  153.018,  -31.930,  0.000,  0.000,  5,  1.02606,  -47.3353,  'BRIDGEPO',  13.800,  12
5365,  2,  67.711,  -13.584,  0.000,  0.000,  5,  1.02370,  -46.9759,  'BRIDGEPO',  13.800,  12
5366,  2,  63.490,  -13.142,  0.000,  0.000,  5,  1.02312,  -46.8794,  'BRIDGEPO',  13.800,  12
5367,  2,  64.580,  -13.262,  0.000,  0.000,  5,  1.02324,  -46.9035,  'BRIDGEPO',  13.800,  12
5368,  2,  101.355,  -21.127,  0.000,  0.000,  5,  1.02492,  -47.1596,  'BRIDGEPO',  13.800,  12
5369,  2,  60.588,  -12.593,  0.000,  0.000,  5,  1.02285,  -46.8377,  'BRIDGEPO',  13.800,  12
5382,  2,  152.814,  -8.688,  0.000,  0.000,  5,  1.04000,  -49.4906,  'ENNIS 2 ',  13.800,  14
5383,  2,  132.531,  -6.102,  0.000,  0.000,  5,  1.04000,  -49.3609,  'ENNIS 3 ',  13.800,  14
5399,  2,  85.397,  -42.994,  0.000,  0.000,  5,  1.04000,  -40.1133,  'ALBANY 1',  13.800,  15
5415,  2,  60.227,  -16.458,  0.000,  0.000,  5,  1.02794,  -45.2323,  'PALO PIN',  13.800,  12
5416,  2,  59.631,  -16.117,  0.000,  0.000,  5,  1.02786,  -45.2257,  'PALO PIN',  13.800,  12
5417,  2,  65.683,  -18.076,  0.000,  0.000,  5,  1.02835,  -45.3022,  'PALO PIN',  13.800,  12
5418,  2,  67.485,  -19.453,  0.000,  0.000,  5,  1.02868,  -45.3325,  'PALO PIN',  13.800,  12
5419,  2,  110.663,  -34.480,  0.000,  0.000,  5,  1.03007,  -45.5537,  'PALO PIN',  13.800,  12
5444,  2,  1013.732,  -202.350,  0.000,  0.000,  5,  1.02461,  -48.4889,  'MIDLOTHI',  500.00,  17
6006,  2,  54.795,  -9.015,  0.000,  0.000,  6,  1.04000,  -57.0429,  'BASTROP ',  13.800,  25
6007,  2,  85.549,  -15.026,  0.000,  0.000,  6,  1.04000,  -56.9203,  'BASTROP ',  13.800,  25
6008,  2,  41.993,  -5.227,  0.000,  0.000,  6,  1.04000,  -57.0071,  'BASTROP ',  13.800,  25
6009,  2,  22.920,  -1.804,  0.000,  0.000,  6,  1.04000,  -56.7001,  'BASTROP ',  13.800,  25
6010,  2,  36.353,  -4.728,  0.000,  0.000,  6,  1.04000,  -56.9324,  'BASTROP ',  13.800,  25
6062,  1,  201.555,  -27.884,  0.000,  0.000,  6,  1.02954,  -61.0989,  'BRENHAM ',  500.00,  25
6069,  2,  110.701,  -16.149,  0.000,  0.000,  6,  1.03000,  -60.0707,  'MARION 1',  18.000,  22
6070,  2,  45.819,  -6.406,  0.000,  0.000,  6,  1.03000,  -59.5640,  'MARION 1',  18.000,  22
6071,  2,  141.865,  -20.087,  0.000,  0.000,  6,  1.03008,  -60.1450,  'MARION 1',  18.000,  22
6072,  2,  56.119,  -7.277,  0.000,  0.000,  6,  1.03000,  -59.7184,  'MARION 1',  18.000,  22
6073,  2,  88.092,  -12.088,  0.000,  0.000,  6,  1.03000,  -59.9534,  'MARION 1',  18.000,  22
6074,  2,  88.757,  -12.763,  0.000,  0.000,  6,  1.03000,  -59.9568,  'MARION 1',  18.000,  22
6078,  2,  25.601,  -21.376,  0.000,  0.000,  6,  1.01902,  -57.8040,  'LA GRANG',  22.000,  25
6079,  2,  51.365,  -41.798,  0.000,  0.000,  6,  1.02326,  -58.3845,  'LA GRANG',  22.000,  25
6080,  2,  38.159,  -31.408,  0.000,  0.000,  6,  1.02187,  -58.2015,  'LA GRANG',  22.000,  25
6106,  2,  49.799,  -16.776,  0.000,  0.000,  6,  1.03574,  -58.8366,  'WINCHEST',  13.800,  25
6110,  2,  142.908,  -20.352,  0.000,  0.000,  6,  1.04000,  -55.1863,  'ROCKDALE',  13.800,  25
6111,  2,  146.777,  -21.329,  0.000,  0.000,  6,  1.04000,  -55.0750,  'ROCKDALE',  13.800,  25
6145,  2,  102.738,  -4.367,  0.000,  0.000,  6,  1.03000,  -58.1270,  'SAN ANTO',  13.800,  22
6146,  2,  103.650,  -6.149,  0.000,  0.000,  6,  1.03000,  -59.2479,  'SAN ANTO',  13.800,  22
6147,  3,  120.100,  -6.720,  0.000,  0.000,  6,  1.03000,  -59.0732,  'SAN ANTO',  13.800,  22
6148,  2,  194.370,  -13.086,  0.000,  0.000,  6,  1.03000,  -59.5530,  'SAN ANTO',  13.800,  22
6149,  2,  384.142,  -28.264,  0.000,  0.000,  6,  1.03000,  -60.0674,  'SAN ANTO',  13.800,  22
6164,  2,  70.151,  -13.441,  0.000,  0.000,  6,  1.03000,  -59.3535,  'SEGUIN 1',  13.800,  22
6165,  2,  68.101,  -12.398,  0.000,  0.000,  6,  1.03000,  -59.2812,  'SEGUIN 1',  13.800,  22
6166,  2,  148.858,  -29.407,  0.000,  0.000,  6,  1.03000,  -59.6870,  'SEGUIN 1',  13.800,  22
6167,  2,  79.729,  -15.468,  0.000,  0.000,  6,  1.03000,  -59.4315,  'SEGUIN 1',  13.800,  22
6188,  1,  158.193,  -23.388,  0.000,  0.000,  6,  1.01683,  -60.6598,  'COLUMBUS',  230.00,  25
6195,  1,  29.243,  -0.693,  0.000,  0.000,  6,  1.00654,  -65.6337,  'INDUSTRY',  115.00,  25
6243,  2,  58.714,  -12.532,  0.000,  0.000,  6,  1.04000,  -60.0525,  'ELMENDOR',  13.800,  22
6244,  2,  72.794,  -15.139,  0.000,  0.000,  6,  1.04000,  -59.1135,  'ELMENDOR',  13.800,  22
6245,  2,  85.042,  -18.792,  0.000,  0.000,  6,  1.04000,  -59.3469,  'ELMENDOR',  13.800,  22
6246,  2,  165.267,  -39.609,  0.000,  0.000,  6,  1.04000,  -59.9642,  'ELMENDOR',  13.800,  22
...
 0 /End of Bus data, Begin Generator data
1004,  '1',  93.949,  -30.380,  44.940,  -30.380,  1.01000,  0,  253.200,  0.00000,  1.00000,  0.00000,  0.00000,  1.00000,  1,  100.0,  211.000,  63.300
1009,  '1',  36.731,  -11.880,  17.570,  -11.880,  1.00000,  0,  99.000,  0.00000,  1.00000,  0.00000,  0.00000,  1.00000,  1,  100.0,  82.500,  24.750
1021,  '1',  88.831,  -28.730,  42.490,  -28.730,  1.00000,  0,  239.400,  0.00000,  1.00000,  0.00000,  0.00000,  1.00000,  1,  100.0,  199.500,  59.850
1023,  '1',  80.146,  -12.824,  38.340,  -25.920,  1.01000,  0,  216.000,  0.00000,  1.00000,  0.00000,  0.00000,  1.00000,  1,  100.0,  180.000,  54.000
1026,  '1',  55.301,  -17.880,  26.450,  -17.880,  1.00000,  0,  149.040,  0.00000,  1.00000,  0.00000,  0.00000,  1.00000,  1,  100.0,  124.200,  37.260
1033,  '1',  123.781,  -38.529,  59.210,  -40.030,  1.00000,  0,  333.600,  0.00000,  1.00000,  0.00000,  0.00000,  1.00000,  1,  100.0,  278.000,  83.400
1035,  '1',  40.073,  -12.960,  19.170,  -12.960,  1.00000,  0,  108.000,  0.00000,  1.00000,  0.00000,  0.00000,  1.00000,  1,  100.0,  90.000,  27.000
1039,  '1',  65.678,  -20.891,  31.420,  -21.240,  1.00000,  0,  177.000,  0.00000,  1.00000,  0.00000,  0.00000,  1.00000,  1,  100.0,  147.500,  44.250
1042,  '1',  72.369,  -10.119,  25.960,  -17.550,  1.00000,  0,  146.280,  0.00000,  1.00000,  0.00000,  0.00000,  1.00000,  1,  100.0,  121.900,  36.570
1048,  '1',  97.560,  -15.746,  165.530,  -36.100,  1.00000,  0,  390.240,  0.00000,  0.10170,  0.00000,  0.00000,  1.00000,  1,  100.0,  325.200,  97.560
1049,  '1',  97.560,  -4.473,  165.530,  -36.100,  1.00000,  0,  390.240,  0.00000,  0.13490,  0.00000,  0.00000,  1.00000,  1,  100.0,  325.200,  97.560
1053,  '1',  53.640,  -19.850,  91.010,  -19.850,  1.00000,  0,  214.560,  0.00000,  0.16870,  0.00000,  0.00000,  1.00000,  1,  100.0,  178.800,  53.640
1057,  '1',  71.241,  -17.280,  25.560,  -17.280,  1.00000,  0,  144.000,  0.00000,  1.00000,  0.00000,  0.00000,  1.00000,  1,  100.0,  120.000,  36.000
1066,  '1',  63.452,  -10.545,  30.350,  -20.520,  1.00000,  0,  171.000,  0.00000,  1.00000,  0.00000,  0.00000,  1.00000,  1,  100.0,  142.500,  42.750
1070,  '1',  71.466,  20.317,  34.190,  -23.110,  1.04000,  0,  192.600,  0.00000,  1.00000,  0.00000,  0.00000,  1.00000,  1,  100.0,  160.500,  48.150
1072,  '1',  151.902,  -4.956,  97.800,  -21.330,  1.01000,  0,  230.560,  0.00000,  0.30820,  0.00000,  0.00000,  1.00000,  1,  100.0,  192.130,  57.640
1073,  '1',  57.640,  -7.065,  97.800,  -21.330,  1.01000,  0,  230.560,  0.00000,  0.19480,  0.00000,  0.00000,  1.00000,  1,  100.0,  192.130,  57.640
1074,  '1',  57.640,  -4.243,  97.800,  -21.330,  1.01000,  0,  230.560,  0.00000,  0.20960,  0.00000,  0.00000,  1.00000,  1,  100.0,  192.130,  57.640
1075,  '1',  57.640,  -5.047,  97.800,  -21.330,  1.01000,  0,  230.560,  0.00000,  0.12370,  0.00000,  0.00000,  1.00000,  1,  100.0,  192.130,  57.640
1076,  '1',  57.640,  -9.962,  97.800,  -21.330,  1.01000,  0,  230.560,  0.00000,  0.10660,  0.00000,  0.00000,  1.00000,  1,  100.0,  192.130,  57.640
1077,  '1',  57.640,  -4.832,  97.800,  -21.330,  1.01000,  0,  230.560,  0.00000,  0.15380,  0.00000,  0.00000,  1.00000,  1,  100.0,  192.130,  57.640
1081,  '1',  85.950,  -6.430,  145.830,  -31.800,  1.01000,  0,  343.800,  0.00000,  0.14960,  0.00000,  0.00000,  1.00000,  1,  100.0,  286.500,  85.950
1082,  '1',  66.788,  -21.600,  31.950,  -21.600,  1.00000,  0,  180.000,  0.00000,  1.00000,  0.00000,  0.00000,  1.00000,  1,  100.0,  150.000,  45.000
1084,  '1',  51.424,  24.600,  24.600,  -16.630,  1.04000,  0,  138.600,  0.00000,  1.00000,  0.00000,  0.00000,  1.00000,  1,  100.0,  115.500,  34.650
1088,  '1',  33.394,  -6.000,  15.970,  -10.800,  1.00000,  0,  90.000,  0.00000,  1.00000,  0.00000,  0.00000,  1.00000,  1,  100.0,  75.000,  22.500
1090,  '1',  32.058,  29.445,  40.150,  -27.140,  1.02000,  0,  226.200,  0.00000,  1.00000,  0.00000,  0.00000,  1.00000,  1,  100.0,  188.500,  56.550
2004,  '1',  117.540,  -43.490,  199.430,  -43.490,  1.02000,  0,  470.160,  0.00000,  0.10640,  0.00000,  0.00000,  1.00000,  1,  100.0,  391.800,  117.540
2005,  '1',  117.540,  -43.490,  199.430,  -43.490,  1.02000,  0,  470.160,  0.00000,  0.22750,  0.00000,  0.00000,  1.00000,  1,  100.0,  391.800,  117.540
2006,  '1',  117.540,  -30.334,  199.430,  -43.490,  1.02000,  0,  470.160,  0.00000,  0.20040,  0.00000,  0.00000,  1.00000,  1,  100.0,  391.800,  117.540
2013,  '1',  47.131,  -28.890,  42.730,  -28.890,  1.00000,  0,  240.720,  0.00000,  1.00000,  0.00000,  0.00000,  1.00000,  1,  100.0,  200.600,  60.180
2019,  '1',  116.012,  -4.787,  46.430,  -31.390,  1.04000,  0,  261.600,  0.00000,  1.00000,  0.00000,  0.00000,  1.00000,  1,  100.0,  218.000,  65.400
2024,  '1',  50.000,  -18.500,  84.830,  -18.500,  1.02000,  0,  200.000,  0.00000,  0.15080,  0.00000,  0.00000,  1.00000,  1,  100.0,  166.670,  50.000
2057,  '1',  265.608,  -193.889,  335.520,  -87.840,  0.99000,  0,  864.000,  0.00000,  0.17700,  0.00000,  0.00000,  1.00000,  1,  100.0,  720.000,  216.000
2059,  '1',  31.930,  -11.520,  17.040,  -11.520,  1.00000,  0,  96.000,  0.00000,  1.00000,  0.00000,  0.00000,  1.00000,  1,  100.0,  80.000,  24.000
2062,  '1',  83.323,  -17.873,  28.840,  -19.500,  1.02000,  0,  162.480,  0.00000,  1.00000,  0.00000,  0.00000,  1.00000,  1,  100.0,  135.400,  40.620
2071,  '1',  87.138,  -21.473,  31.950,  -21.600,  1.00000,  0,  180.000,  0.00000,  1.00000,  0.00000,  0.00000,  1.00000,  1,  100.0,  150.000,  45.000
2078,  '1',  65.358,  -12.415,  23.960,  -16.200,  1.02000,  0,  135.000,  0.00000,  1.00000,  0.00000,  0.00000,  1.00000,  1,  100.0,  112.500,  33.750
2089,  '1',  39.270,  -9.199,  14.400,  -9.730,  1.00000,  0,  81.120,  0.00000,  1.00000,  0.00000,  0.00000,  1.00000,  1,  100.0,  67.600,  20.280
2100,  '1',  100.606,  -21.600,  31.950,  -21.600,  1.02000,  0,  180.000,  0.00000,  1.00000,  0.00000,  0.00000,  1.00000,  1,  100.0,  150.000,  45.000
2103,  '1',  80.320,  -29.720,  136.280,  -29.720,  1.00000,  0,  321.280,  0.00000,  0.33430,  0.00000,  0.00000,  1.00000,  1,  100.0,  267.730,  80.320
2104,  '1',  80.320,  -29.720,  136.280,  -29.720,  1.00000,  0,  321.280,  0.00000,  0.31470,  0.00000,  0.00000,  1.00000,  1,  100.0,  267.730,  80.320
2105,  '1',  80.320,  -29.720,  136.280,  -29.720,  1.00000,  0,  321.280,  0.00000,  0.14160,  0.00000,  0.00000,  1.00000,  1,  100.0,  267.730,  80.320
2115,  '1',  55.410,  -20.500,  94.020,  -20.500,  1.00000,  0,  221.660,  0.00000,  0.14250,  0.00000,  0.00000,  1.00000,  1,  100.0,  184.720,  55.410
2116,  '1',  55.410,  -20.500,  94.020,  -20.500,  1.00000,  0,  221.660,  0.00000,  0.18690,  0.00000,  0.00000,  1.00000,  1,  100.0,  184.720,  55.410
2117,  '1',  55.410,  -20.500,  94.020,  -20.500,  1.00000,  0,  221.660,  0.00000,  0.32540,  0.00000,  0.00000,  1.00000,  1,  100.0,  184.720,  55.410
2118,  '1',  55.410,  -20.500,  94.020,  -20.500,  1.00000,  0,  221.660,  0.00000,  0.10610,  0.00000,  0.00000,  1.00000,  1,  100.0,  184.720,  55.410
2119,  '1',  55.410,  -20.500,  94.020,  -20.500,  1.00000,  0,  221.660,  0.00000,  0.13600,  0.00000,  0.00000,  1.00000,  1,  100.0,  184.720,  55.410
2120,  '1',  55.410,  -20.500,  94.020,  -20.500,  1.01000,  0,  221.660,  0.00000,  0.20680,  0.00000,  0.00000,  1.00000,  1,  100.0,  184.720,  55.410
2123,  '1',  67.767,  -26.160,  38.700,  -26.160,  1.00000,  0,  218.040,  0.00000,  1.00000,  0.00000,  0.00000,  1.00000,  1,  100.0,  181.700,  54.510
2127,  '1',  192.516,  -41.560,  61.470,  -41.560,  1.04000,  0,  346.320,  0.00000,  1.00000,  0.00000,  0.00000,  1.00000,  1,  100.0,  288.600,  86.580
3017,  '1',  75.474,  -11.418,  36.100,  -24.410,  1.01000,  0,  203.400,  0.00000,  1.00000,  0.00000,  0.00000,  1.00000,  1,  100.0,  169.500,  50.850
3020,  '1',  66.788,  2.632,  31.950,  -21.600,  1.03000,  0,  180.000,  0.00000,  1.00000,  0.00000,  0.00000,  1.00000,  1,  100.0,  150.000,  45.000
3028,  '1',  116.185,  10.198,  42.600,  -28.800,  1.04000,  0,  240.000,  0.00000,  1.00000,  0.00000,  0.00000,  1.00000,  1,  100.0,  200.000,  60.000
3034,  '1',  58.103,  3.742,  27.800,  -18.790,  1.03000,  0,  156.600,  0.00000,  1.00000,  0.00000,  0.00000,  1.00000,  1,  100.0,  130.500,  39.150
3039,  '1',  93.058,  21.002,  44.520,  -30.100,  1.04000,  0,  250.800,  0.00000,  1.00000,  0.00000,  0.00000,  1.00000,  1,  100.0,  209.000,  62.700
3045,  '1',  134.100,  13.838,  227.520,  -49.620,  1.04000,  0,  536.400,  0.00000,  0.14470,  0.00000,  0.00000,  1.00000,  1,  100.0,  447.000,  134.100
3048,  '1',  107.307,  -34.700,  51.330,  -34.700,  1.04000,  0,  289.200,  0.00000,  1.00000,  0.00000,  0.00000,  1.00000,  1,  100.0,  241.000,  72.300
3055,  '1',  109.165,  16.677,  52.220,  -35.300,  1.04000,  0,  294.200,  0.00000,  1.00000,  0.00000,  0.00000,  1.00000,  1,  100.0,  245.170,  73.550
3056,  '1',  109.165,  10.375,  52.220,  -35.300,  1.04000,  0,  294.200,  0.00000,  1.00000,  0.00000,  0.00000,  1.00000,  1,  100.0,  245.170,  73.550
3057,  '1',  109.165,  9.428,  52.220,  -35.300,  1.04000,  0,  294.200,  0.00000,  1.00000,  0.00000,  0.00000,  1.00000,  1,  100.0,  245.170,  73.550
3060,  '1',  73.746,  5.271,  35.280,  -23.850,  1.04000,  0,  198.750,  0.00000,  1.00000,  0.00000,  0.00000,  1.00000,  1,  100.0,  165.630,  49.690
3061,  '1',  73.746,  6.069,  35.280,  -23.850,  1.04000,  0,  198.750,  0.00000,  1.00000,  0.00000,  0.00000,  1.00000,  1,  100.0,  165.630,  49.690
3062,  '1',  73.746,  9.289,  35.280,  -23.850,  1.04000,  0,  198.750,  0.00000,  1.00000,  0.00000,  0.00000,  1.00000,  1,  100.0,  165.630,  49.690
3063,  '1',  73.746,  6.721,  35.280,  -23.850,  1.04000,  0,  198.750,  0.00000,  1.00000,  0.00000,  0.00000,  1.00000,  1,  100.0,  165.630,  49.690
3065,  '1',  35.840,  -11.590,  17.150,  -11.590,  1.00000,  0,  96.600,  0.00000,  1.00000,  0.00000,  0.00000,  1.00000,  1,  100.0,  80.500,  24.150
3068,  '1',  66.788,  19.186,  31.950,  -21.600,  1.04000,  0,  180.000,  0.00000,  1.00000,  0.00000,  0.00000,  1.00000,  1,  100.0,  150.000,  45.000
3071,  '1',  75.782,  -24.510,  36.250,  -24.510,  1.00000,  0,  204.240,  0.00000,  1.00000,  0.00000,  0.00000,  1.00000,  1,  100.0,  170.200,  51.060
3074,  '1',  44.436,  -14.370,  21.260,  -14.370,  1.00000,  0,  119.760,  0.00000,  1.00000,  0.00000,  0.00000,  1.00000,  1,  100.0,  99.800,  29.940
3081,  '1',  110.869,  13.998,  53.040,  -35.860,  1.04000,  0,  298.800,  0.00000,  1.00000,  0.00000,  0.00000,  1.00000,  1,  100.0,  249.000,  74.700
3084,  '1',  103.519,  -26.520,  49.520,  -33.480,  1.00000,  0,  279.000,  0.00000,  1.00000,  0.00000,  0.00000,  1.00000,  1,  100.0,  232.500,  69.750
3086,  '1',  33.394,  -10.800,  15.970,  -10.800,  1.00000,  0,  90.000,  0.00000,  1.00000,  0.00000,  0.00000,  1.00000,  1,  100.0,  75.000,  22.500
3087,  '1',  44.526,  -10.800,  15.970,  -10.800,  1.00000,  0,  90.000,  0.00000,  1.00000,  0.00000,  0.00000,  1.00000,  1,  100.0,  75.000,  22.500
3092,  '1',  89.051,  10.705,  42.600,  -28.800,  1.04000,  0,  240.000,  0.00000,  1.00000,  0.00000,  0.00000,  1.00000,  1,  100.0,  200.000,  60.000
3095,  '1',  53.698,  6.088,  25.690,  -17.370,  1.04000,  0,  144.720,  0.00000,  1.00000,  0.00000,  0.00000,  1.00000,  1,  100.0,  120.600,  36.180
3098,  '1',  71.241,  6.541,  34.080,  -23.040,  1.04000,  0,  192.000,  0.00000,  1.00000,  0.00000,  0.00000,  1.00000,  1,  100.0,  160.000,  48.000
3106,  '1',  6.353,  -11.933,  62.477,  -2.690,  1.00000,  0,  65.880,  0.00000,  0.29220,  0.00000,  0.00000,  1.00000,  1,  100.0,  162.800,  0.000
3110,  '1',  37.401,  4.633,  17.890,  -12.100,  1.04000,  0,  100.800,  0.00000,  1.00000,  0.00000,  0.00000,  1.00000,  1,  100.0,  84.000,  25.200
3112,  '1',  33.305,  -10.770,  15.930,  -10.770,  1.00000,  0,  89.760,  0.00000,  1.00000,  0.00000,  0.00000,  1.00000,  1,  100.0,  74.800,  22.440
3113,  '1',  33.305,  -10.770,  15.930,  -10.770,  1.00000,  0,  89.760,  0.00000,  1.00000,  0.00000,  0.00000,  1.00000,  1,  100.0,  74.800,  22.440
3118,  '1',  53.431,  -17.280,  25.560,  -17.280,  1.00000,  0,  144.000,  0.00000,  1.00000,  0.00000,  0.00000,  1.00000,  1,  100.0,  120.000,  36.000
3122,  '1',  87.715,  -20.411,  41.960,  -28.370,  1.00000,  0,  236.400,  0.00000,  1.00000,  0.00000,  0.00000,  1.00000,  1,  100.0,  197.000,  59.100
3127,  '1',  60.109,  -19.440,  28.760,  -19.440,  1.00000,  0,  162.000,  0.00000,  1.00000,  0.00000,  0.00000,  1.00000,  1,  100.0,  135.000,  40.500
3129,  '1',  56.328,  -18.220,  26.940,  -18.220,  1.00000,  0,  151.800,  0.00000,  1.00000,  0.00000,  0.00000,  1.00000,  1,  100.0,  126.500,  37.950
3131,  '1',  50.759,  -14.479,  24.280,  -16.420,  1.02000,  0,  136.800,  0.00000,  1.00000,  0.00000,  0.00000,  1.00000,  1,  100.0,  114.000,  34.200
3137,  '1',  45.060,  17.037,  21.560,  -14.570,  1.03000,  0,  121.440,  0.00000,  1.00000,  0.00000,  0.00000,  1.00000,  1,  100.0,  101.200,  30.360
3141,  '1',  40.738,  -13.180,  19.490,  -13.180,  1.00000,  0,  109.800,  0.00000,  1.00000,  0.00000,  0.00000,  1.00000,  1,  100.0,  91.500,  27.450
4010,  '1',  89.764,  1.808,  42.940,  -29.030,  1.03000,  0,  241.920,  0.00000,  1.00000,  0.00000,  0.00000,  1.00000,  1,  100.0,  201.600,  60.480
4026,  '1',  123.000,  0.586,  191.060,  -50.020,  1.03000,  0,  492.000,  0.00000,  0.32770,  0.00000,  0.00000,  1.00000,  1,  100.0,  410.000,  123.000
4030,  '1',  126.689,  -48.150,  290.040,  -75.930,  1.01000,  0,  746.880,  0.00000,  0.27970,  0.00000,  0.00000,  1.00000,  1,  100.0,  622.400,  186.720
4050,  '1',  89.051,  -28.800,  42.600,  -28.800,  1.00000,  0,  240.000,  0.00000,  1.00000,  0.00000,  0.00000,  1.00000,  1,  100.0,  200.000,  60.000
4058,  '1',  43.200,  4.541,  73.300,  -15.980,  1.03000,  0,  172.800,  0.00000,  0.13700,  0.00000,  0.00000,  1.00000,  1,  100.0,  144.000,  43.200
4059,  '1',  43.200,  4.660,  73.300,  -15.980,  1.03000,  0,  172.800,  0.00000,  0.15140,  0.00000,  0.00000,  1.00000,  1,  100.0,  144.000,  43.200
4060,  '1',  43.200,  3.136,  73.300,  -15.980,  1.03000,  0,  172.800,  0.00000,  0.13940,  0.00000,  0.00000,  1.00000,  1,  100.0,  144.000,  43.200
4061,  '1',  51.700,  4.503,  87.720,  -19.130,  1.03000,  0,  206.800,  0.00000,  0.21560,  0.00000,  0.00000,  1.00000,  1,  100.0,  172.330,  51.700
4062,  '1',  51.700,  2.927,  87.720,  -19.130,  1.03000,  0,  206.800,  0.00000,  0.25930,  0.00000,  0.00000,  1.00000,  1,  100.0,  172.330,  51.700
4063,  '1',  51.700,  5.084,  87.720,  -19.130,  1.03000,  0,  206.800,  0.00000,  0.14410,  0.00000,  0.00000,  1.00000,  1,  100.0,  172.330,  51.700
4082,  '1',  73.020,  10.830,  123.890,  -27.020,  1.04000,  0,  292.080,  0.00000,  0.13810,  0.00000,  0.00000,  1.00000,  1,  100.0,  243.400,  73.020
4083,  '1',  73.020,  11.709,  123.890,  -27.020,  1.04000,  0,  292.080,  0.00000,  0.15700,  0.00000,  0.00000,  1.00000,  1,  100.0,  243.400,  73.020
4084,  '1',  73.020,  22.072,  123.890,  -27.020,  1.04000,  0,  292.080,  0.00000,  0.19110,  0.00000,  0.00000,  1.00000,  1,  100.0,  243.400,  73.020
4085,  '1',  105.600,  24.819,  179.170,  -39.070,  1.04000,  0,  422.400,  0.00000,  0.31920,  0.00000,  0.00000,  1.00000,  1,  100.0,  352.000,  105.600
4105,  '1',  104.566,  -19.370,  38.340,  -25.920,  1.01000,  0,  216.000,  0.00000,  1.00000,  0.00000,  0.00000,  1.00000,  1,  100.0,  180.000,  54.000
4115,  '1',  39.540,  22.050,  67.090,  -14.630,  1.04000,  0,  158.160,  0.00000,  0.11310,  0.00000,  0.00000,  1.00000,  1,  100.0,  131.800,  39.540
4116,  '1',  39.540,  20.571,  67.090,  -14.630,  1.04000,  0,  158.160,  0.00000,  0.15150,  0.00000,  0.00000,  1.00000,  1,  100.0,  131.800,  39.540
4142,  '1',  83.708,  16.344,  40.040,  -27.070,  1.04000,  0,  225.600,  0.00000,  1.00000,  0.00000,  0.00000,  1.00000,  1,  100.0,  188.000,  56.400
4153,  '1',  126.096,  34.253,  60.320,  -40.780,  1.04000,  0,  339.840,  0.00000,  1.00000,  0.00000,  0.00000,  1.00000,  1,  100.0,  283.200,  84.960
4160,  '1',  59.330,  15.021,  100.660,  -21.950,  1.03000,  0,  237.320,  0.00000,  0.18820,  0.00000,  0.00000,  1.00000,  1,  100.0,  197.770,  59.330
4161,  '1',  59.330,  6.612,  100.660,  -21.950,  1.03000,  0,  237.320,  0.00000,  0.12390,  0.00000,  0.00000,  1.00000,  1,  100.0,  197.770,  59.330
4162,  '1',  59.330,  5.443,  100.660,  -21.950,  1.03000,  0,  237.320,  0.00000,  0.17220,  0.00000,  0.00000,  1.00000,  1,  100.0,  197.770,  59.330
4166,  '1',  89.496,  -28.940,  42.810,  -28.940,  1.00000,  0,  241.200,  0.00000,  1.00000,  0.00000,  0.00000,  1.00000,  1,  100.0,  201.000,  60.300
4177,  '1',  66.788,  0.475,  31.950,  -21.600,  1.04000,  0,  180.000,  0.00000,  1.00000,  0.00000,  0.00000,  1.00000,  1,  100.0,  150.000,  45.000
4181,  '1',  116.239,  42.620,  42.620,  -28.810,  1.04000,  0,  240.120,  0.00000,  1.00000,  0.00000,  0.00000,  1.00000,  1,  100.0,  200.100,  60.030
4183,  '1',  90.387,  43.240,  43.240,  -29.230,  1.03000,  0,  243.600,  0.00000,  1.00000,  0.00000,  0.00000,  1.00000,  1,  100.0,  203.000,  60.900
4192,  '1',  405.690,  2.528,  688.320,  -150.120,  1.02000,  0,  1622.76,  0.00000,  0.14340,  0.00000,  0.00000,  1.00000,  1,  100.0,  1352.31,  405.690
4194,  '1',  89.764,  14.591,  42.940,  -29.030,  1.02000,  0,  241.920,  0.00000,  1.00000,  0.00000,  0.00000,  1.00000,  1,  100.0,  201.600,  60.480
4195,  '1',  40.964,  -13.250,  19.600,  -13.250,  1.00000,  0,  110.400,  0.00000,  1.00000,  0.00000,  0.00000,  1.00000,  1,  100.0,  92.000,  27.600
5020,  '1',  69.711,  -17.280,  25.560,  -17.280,  1.00000,  0,  144.000,  0.00000,  1.00000,  0.00000,  0.00000,  1.00000,  1,  100.0,  120.000,  36.000
5037,  '1',  178.910,  -34.240,  157.010,  -34.240,  1.02000,  0,  370.160,  0.00000,  0.29910,  0.00000,  0.00000,  1.00000,  1,  100.0,  308.470,  92.540
5038,  '1',  178.910,  -34.240,  157.010,  -34.240,  1.02000,  0,  370.160,  0.00000,  0.12330,  0.00000,  0.00000,  1.00000,  1,  100.0,  308.470,  92.540
5039,  '1',  178.910,  -34.240,  157.010,  -34.240,  1.02000,  0,  370.160,  0.00000,  0.21470,  0.00000,  0.00000,  1.00000,  1,  100.0,  308.470,  92.540
5040,  '1',  178.910,  -34.240,  157.010,  -34.240,  1.02000,  0,  370.160,  0.00000,  0.19240,  0.00000,  0.00000,  1.00000,  1,  100.0,  308.470,  92.540
5041,  '1',  178.910,  -34.240,  157.010,  -34.240,  1.02000,  0,  370.160,  0.00000,  0.11590,  0.00000,  0.00000,  1.00000,  1,  100.0,  308.470,  92.540
5042,  '1',  178.910,  -34.240,  157.010,  -34.240,  1.02000,  0,  370.160,  0.00000,  0.19130,  0.00000,  0.00000,  1.00000,  1,  100.0,  308.470,  92.540
5057,  '1',  95.200,  -35.230,  161.530,  -35.230,  1.00000,  0,  380.820,  0.00000,  0.19130,  0.00000,  0.00000,  1.00000,  1,  100.0,  317.350,  95.200
5058,  '1',  95.200,  -35.230,  161.530,  -35.230,  1.00000,  0,  380.820,  0.00000,  0.29820,  0.00000,  0.00000,  1.00000,  1,  100.0,  317.350,  95.200
5067,  '1',  131.480,  -16.105,  223.080,  -48.650,  1.03000,  0,  525.920,  0.00000,  0.32610,  0.00000,  0.00000,  1.00000,  1,  100.0,  438.270,  131.480
5068,  '1',  131.480,  -15.944,  223.080,  -48.650,  1.03000,  0,  525.920,  0.00000,  0.11690,  0.00000,  0.00000,  1.00000,  1,  100.0,  438.270,  131.480
5069,  '1',  131.480,  -15.318,  223.080,  -48.650,  1.03000,  0,  525.920,  0.00000,  0.10560,  0.00000,  0.00000,  1.00000,  1,  100.0,  438.270,  131.480
5166,  '1',  37.950,  20.087,  64.390,  -14.040,  1.04000,  0,  151.800,  0.00000,  0.13910,  0.00000,  0.00000,  1.00000,  1,  100.0,  126.500,  37.950
5170,  '1',  34.855,  -8.640,  12.780,  -8.640,  1.00000,  0,  72.000,  0.00000,  1.00000,  0.00000,  0.00000,  1.00000,  1,  100.0,  60.000,  18.000
5198,  '1',  87.138,  -21.600,  31.950,  -21.600,  1.00000,  0,  180.000,  0.00000,  1.00000,  0.00000,  0.00000,  1.00000,  1,  100.0,  150.000,  45.000
5206,  '1',  74.600,  -27.600,  126.570,  -27.600,  1.01000,  0,  298.400,  0.00000,  0.11980,  0.00000,  0.00000,  1.00000,  1,  100.0,  248.670,  74.600
5207,  '1',  74.600,  -27.600,  126.570,  -27.600,  1.01000,  0,  298.400,  0.00000,  0.18090,  0.00000,  0.00000,  1.00000,  1,  100.0,  248.670,  74.600
5208,  '1',  74.600,  -27.600,  126.570,  -27.600,  1.01000,  0,  298.400,  0.00000,  0.10560,  0.00000,  0.00000,  1.00000,  1,  100.0,  248.670,  74.600
5238,  '1',  130.708,  -32.400,  47.930,  -32.400,  1.00000,  0,  270.000,  0.00000,  1.00000,  0.00000,  0.00000,  1.00000,  1,  100.0,  225.000,  67.500
5243,  '1',  87.138,  -21.600,  31.950,  -21.600,  1.00000,  0,  180.000,  0.00000,  1.00000,  0.00000,  0.00000,  1.00000,  1,  100.0,  150.000,  45.000
5262,  '1',  1215.000,  -99.630,  447.120,  -99.630,  1.01000,  0,  1458.00,  0.00000,  0.26310,  0.00000,  0.00000,  1.00000,  1,  100.0,  1215.00,  364.500
5263,  '1',  1215.000,  -99.630,  447.120,  -99.630,  1.01000,  0,  1458.00,  0.00000,  0.16260,  0.00000,  0.00000,  1.00000,  1,  100.0,  1215.00,  364.500
5281,  '1',  80.320,  -29.720,  136.280,  -29.720,  1.00000,  0,  321.280,  0.00000,  0.10660,  0.00000,  0.00000,  1.00000,  1,  100.0,  267.730,  80.320
5282,  '1',  80.320,  -29.720,  136.280,  -29.720,  1.00000,  0,  321.280,  0.00000,  0.23940,  0.00000,  0.00000,  1.00000,  1,  100.0,  267.730,  80.320
5283,  '1',  80.320,  -29.720,  136.280,  -29.720,  1.00000,  0,  321.280,  0.00000,  0.10650,  0.00000,  0.00000,  1.00000,  1,  100.0,  267.730,  80.320
5298,  '1',  34.500,  52.100,  58.530,  -12.760,  1.04000,  0,  138.000,  0.00000,  0.13260,  0.00000,  0.00000,  1.00000,  1,  100.0,  115.000,  34.500
5299,  '1',  34.500,  25.172,  58.530,  -12.760,  1.04000,  0,  138.000,  0.00000,  0.32280,  0.00000,  0.00000,  1.00000,  1,  100.0,  115.000,  34.500
5300,  '1',  34.500,  30.383,  58.530,  -12.760,  1.04000,  0,  138.000,  0.00000,  0.21910,  0.00000,  0.00000,  1.00000,  1,  100.0,  115.000,  34.500
5302,  '1',  139.130,  31.440,  236.050,  -51.480,  1.04000,  0,  556.500,  0.00000,  0.13300,  0.00000,  0.00000,  1.00000,  1,  100.0,  463.750,  139.130
5303,  '1',  139.130,  42.588,  236.050,  -51.480,  1.04000,  0,  556.500,  0.00000,  0.17920,  0.00000,  0.00000,  1.00000,  1,  100.0,  463.750,  139.130
5319,  '1',  78.840,  -29.170,  133.770,  -29.170,  1.01000,  0,  315.360,  0.00000,  0.25070,  0.00000,  0.00000,  1.00000,  1,  100.0,  262.800,  78.840
5320,  '1',  78.840,  -29.170,  133.770,  -29.170,  1.01000,  0,  315.360,  0.00000,  0.28140,  0.00000,  0.00000,  1.00000,  1,  100.0,  262.800,  78.840
5321,  '1',  78.840,  -29.170,  133.770,  -29.170,  1.01000,  0,  315.360,  0.00000,  0.12810,  0.00000,  0.00000,  1.00000,  1,  100.0,  262.800,  78.840
5324,  '1',  164.760,  34.941,  144.590,  -31.530,  1.04000,  0,  340.880,  0.00000,  0.21670,  0.00000,  0.00000,  1.00000,  1,  100.0,  284.070,  85.220
5325,  '1',  164.760,  36.127,  144.590,  -31.530,  1.04000,  0,  340.880,  0.00000,  0.15030,  0.00000,  0.00000,  1.00000,  1,  100.0,  284.070,  85.220
5326,  '1',  164.760,  100.329,  144.590,  -31.530,  1.04000,  0,  340.880,  0.00000,  0.18810,  0.00000,  0.00000,  1.00000,  1,  100.0,  284.070,  85.220
5360,  '1',  278.575,  -152.940,  469.730,  -122.980,  1.01000,  0,  1209.60,  0.00000,  0.25510,  0.00000,  0.00000,  1.00000,  1,  100.0,  1008.00,  302.400
5364,  '1',  64.000,  -23.680,  108.590,  -23.680,  1.00000,  0,  256.000,  0.00000,  0.13030,  0.00000,  0.00000,  1.00000,  1,  100.0,  213.330,  64.000
5365,  '1',  64.000,  -23.680,  108.590,  -23.680,  1.00000,  0,  256.000,  0.00000,  0.11650,  0.00000,  0.00000,  1.00000,  1,  100.0,  213.330,  64.000
5366,  '1',  64.000,  -23.680,  108.590,  -23.680,  1.00000,  0,  256.000,  0.00000,  0.15490,  0.00000,  0.00000,  1.00000,  1,  100.0,  213.330,  64.000
5367,  '1',  64.000,  -23.680,  108.590,  -23.680,  1.00000,  0,  256.000,  0.00000,  0.10020,  0.00000,  0.00000,  1.00000,  1,  100.0,  213.330,  64.000
5368,  '1',  64.000,  -23.680,  108.590,  -23.680,  1.00000,  0,  256.000,  0.00000,  0.36180,  0.00000,  0.00000,  1.00000,  1,  100.0,  213.330,  64.000
5369,  '1',  64.000,  -23.680,  108.590,  -23.680,  1.00000,  0,  256.000,  0.00000,  0.24440,  0.00000,  0.00000,  1.00000,  1,  100.0,  213.330,  64.000
5382,  '1',  121.220,  57.835,  106.380,  -23.200,  1.04000,  0,  250.800,  0.00000,  0.24770,  0.00000,  0.00000,  1.00000,  1,  100.0,  209.000,  62.700
5383,  '1',  121.220,  50.873,  106.380,  -23.200,  1.04000,  0,  250.800,  0.00000,  0.39820,  0.00000,  0.00000,  1.00000,  1,  100.0,  209.000,  62.700
5399,  '1',  96.201,  7.655,  35.270,  -23.850,  1.04000,  0,  198.720,  0.00000,  1.00000,  0.00000,  0.00000,  1.00000,  1,  100.0,  165.600,  49.680
5415,  '1',  36.600,  -13.540,  62.100,  -13.540,  1.00000,  0,  146.400,  0.00000,  0.14030,  0.00000,  0.00000,  1.00000,  1,  100.0,  122.000,  36.600
5416,  '1',  36.600,  -13.540,  62.100,  -13.540,  1.00000,  0,  146.400,  0.00000,  0.26480,  0.00000,  0.00000,  1.00000,  1,  100.0,  122.000,  36.600
5417,  '1',  36.600,  -13.540,  62.100,  -13.540,  1.00000,  0,  146.400,  0.00000,  0.16960,  0.00000,  0.00000,  1.00000,  1,  100.0,  122.000,  36.600
5418,  '1',  35.640,  -13.190,  60.470,  -13.190,  1.00000,  0,  142.560,  0.00000,  0.34000,  0.00000,  0.00000,  1.00000,  1,  100.0,  118.800,  35.640
5419,  '1',  35.640,  -13.190,  60.470,  -13.190,  1.00000,  0,  142.560,  0.00000,  0.16420,  0.00000,  0.00000,  1.00000,  1,  100.0,  118.800,  35.640
5444,  '1',  604.980,  -223.840,  1026.440,  -223.840,  1.01000,  0,  2419.92,  0.00000,  0.34260,  0.00000,  0.00000,  1.00000,  1,  100.0,  2016.60,  604.980
6006,  '1',  63.900,  10.620,  108.420,  -23.640,  1.04000,  0,  255.600,  0.00000,  0.18770,  0.00000,  0.00000,  1.00000,  1,  100.0,  213.000,  63.900
6007,  '1',  127.800,  16.693,  216.830,  -47.290,  1.04000,  0,  511.200,  0.00000,  0.13420,  0.00000,  0.00000,  1.00000,  1,  100.0,  426.000,  127.800
6008,  '1',  59.500,  9.432,  100.950,  -22.010,  1.04000,  0,  238.000,  0.00000,  0.20160,  0.00000,  0.00000,  1.00000,  1,  100.0,  198.330,  59.500
6009,  '1',  59.500,  5.547,  100.950,  -22.010,  1.04000,  0,  238.000,  0.00000,  0.18430,  0.00000,  0.00000,  1.00000,  1,  100.0,  198.330,  59.500
6010,  '1',  59.500,  7.638,  100.950,  -22.010,  1.04000,  0,  238.000,  0.00000,  0.15620,  0.00000,  0.00000,  1.00000,  1,  100.0,  198.330,  59.500
6069,  '1',  54.410,  -16.987,  92.320,  -20.130,  1.03000,  0,  217.640,  0.00000,  0.22480,  0.00000,  0.00000,  1.00000,  1,  100.0,  181.370,  54.410
6070,  '1',  54.410,  -7.058,  92.320,  -20.130,  1.03000,  0,  217.640,  0.00000,  0.24660,  0.00000,  0.00000,  1.00000,  1,  100.0,  181.370,  54.410
6071,  '1',  54.410,  -20.130,  92.320,  -20.130,  1.03000,  0,  217.640,  0.00000,  0.15280,  0.00000,  0.00000,  1.00000,  1,  100.0,  181.370,  54.410
6072,  '1',  54.410,  -8.347,  92.320,  -20.130,  1.03000,  0,  217.640,  0.00000,  0.19250,  0.00000,  0.00000,  1.00000,  1,  100.0,  181.370,  54.410
6073,  '1',  54.410,  -12.777,  92.320,  -20.130,  1.03000,  0,  217.640,  0.00000,  0.14260,  0.00000,  0.00000,  1.00000,  1,  100.0,  181.370,  54.410
6074,  '1',  54.410,  -13.232,  92.320,  -20.130,  1.03000,  0,  217.640,  0.00000,  0.11150,  0.00000,  0.00000,  1.00000,  1,  100.0,  181.370,  54.410
6078,  '1',  169.000,  -68.730,  262.510,  -68.730,  1.00000,  0,  676.000,  0.00000,  0.28900,  0.00000,  0.00000,  1.00000,  1,  100.0,  563.330,  169.000
6079,  '1',  169.000,  -68.730,  262.510,  -68.730,  1.00000,  0,  676.000,  0.00000,  0.25330,  0.00000,  0.00000,  1.00000,  1,  100.0,  563.330,  169.000
6080,  '1',  169.000,  -68.730,  262.510,  -68.730,  1.00000,  0,  676.000,  0.00000,  0.32510,  0.00000,  0.00000,  1.00000,  1,  100.0,  563.330,  169.000
6106,  '1',  36.300,  61.590,  61.590,  -13.430,  1.04000,  0,  145.200,  0.00000,  0.12010,  0.00000,  0.00000,  1.00000,  1,  100.0,  121.000,  36.300
6110,  '1',  177.180,  17.094,  275.220,  -72.050,  1.04000,  0,  708.720,  0.00000,  0.16800,  0.00000,  0.00000,  1.00000,  1,  100.0,  590.600,  177.180
6111,  '1',  198.450,  17.507,  308.260,  -80.700,  1.04000,  0,  793.800,  0.00000,  0.21900,  0.00000,  0.00000,  1.00000,  1,  100.0,  661.500,  198.450
6145,  '1',  258.680,  -11.563,  227.010,  -49.510,  1.03000,  0,  535.200,  0.00000,  0.14770,  0.00000,  0.00000,  1.00000,  1,  100.0,  446.000,  133.800
6146,  '1',  147.845,  -14.089,  227.010,  -49.510,  1.03000,  0,  535.200,  0.00000,  0.11950,  0.00000,  0.00000,  1.00000,  1,  100.0,  446.000,  133.800
6147,  '1',  192.244,  -15.893,  474.390,  -103.450,  1.03000,  0,  1118.40,  0.00000,  0.10440,  0.00000,  0.00000,  1.00000,  1,  100.0,  932.000,  279.600
6148,  '1',  216.600,  -27.061,  367.500,  -80.140,  1.03000,  0,  866.400,  0.00000,  0.23830,  0.00000,  0.00000,  1.00000,  1,  100.0,  722.000,  216.600
6149,  '1',  216.600,  -50.910,  367.500,  -80.140,  1.03000,  0,  866.400,  0.00000,  0.12770,  0.00000,  0.00000,  1.00000,  1,  100.0,  722.000,  216.600
6164,  '1',  70.520,  -8.111,  119.640,  -26.090,  1.03000,  0,  282.060,  0.00000,  0.30070,  0.00000,  0.00000,  1.00000,  1,  100.0,  235.050,  70.520
6165,  '1',  70.520,  -7.655,  119.640,  -26.090,  1.03000,  0,  282.060,  0.00000,  0.18390,  0.00000,  0.00000,  1.00000,  1,  100.0,  235.050,  70.520
6166,  '1',  70.520,  -16.932,  119.640,  -26.090,  1.03000,  0,  282.060,  0.00000,  0.25100,  0.00000,  0.00000,  1.00000,  1,  100.0,  235.050,  70.520
6167,  '1',  70.520,  -9.267,  119.640,  -26.090,  1.03000,  0,  282.060,  0.00000,  0.13970,  0.00000,  0.00000,  1.00000,  1,  100.0,  235.050,  70.520
6243,  '1',  54.900,  16.749,  93.150,  -20.310,  1.04000,  0,  219.600,  0.00000,  0.28800,  0.00000,  0.00000,  1.00000,  1,  100.0,  183.000,  54.900
6244,  '1',  172.840,  20.004,  151.680,  -33.080,  1.04000,  0,  357.600,  0.00000,  0.12500,  0.00000,  0.00000,  1.00000,  1,  100.0,  298.000,  89.400
6245,  '1',  172.840,  23.290,  151.680,  -33.080,  1.04000,  0,  357.600,  0.00000,  0.24960,  0.00000,  0.00000,  1.00000,  1,  100.0,  298.000,  89.400
6246,  '1',  172.840,  44.985,  151.680,  -33.080,  1.04000,  0,  357.600,  0.00000,  0.16990,  0.00000,  0.00000,  1.00000,  1,  100.0,  298.000,  89.400
6247,  '1',  55.000,  37.513,  93.320,  -20.350,  1.04000,  0,  220.000,  0.00000,  0.11730,  0.00000,  0.00000,  1.00000,  1,  100.0,  183.330,  55.000
6248,  '1',  55.000,  18.657,  93.320,  -20.350,  1.04000,  0,  220.000,  0.00000,  0.27550,  0.00000,  0.00000,  1.00000,  1,  100.0,  183.330,  55.000
6249,  '1',  55.000,  12.468,  93.320,  -20.350,  1.04000,  0,  220.000,  0.00000,  0.17480,  0.00000,  0.00000,  1.00000,  1,  100.0,  183.330,  55.000
...
 0 /End of Generator data, Begin Branch data
1004,  1023,  '99',  0.01124,  0.34552,  0.00000,  0.00,  0.00,  0.00,  0.00000,  0.000,  0.00000,  0.00000,  0.00000,  0.00000,  1
1004,  1057,  '99',  0.63207,  4.15615,  0.00000,  0.00,  0.00,  0.00,  0.00000,  0.000,  0.00000,  0.00000,  0.00000,  0.00000,  1
1004,  2019,  '99',  0.12243,  1.16991,  0.00000,  0.00,  0.00,  0.00,  0.00000,  0.000,  0.00000,  0.00000,  0.00000,  0.00000,  1
1004,  2062,  '99',  0.92575,  4.44412,  0.00000,  0.00,  0.00,  0.00,  0.00000,  0.000,  0.00000,  0.00000,  0.00000,  0.00000,  1
1004,  2100,  '99',  0.05249,  0.64257,  0.00000,  0.00,  0.00,  0.00,  0.00000,  0.000,  0.00000,  0.00000,  0.00000,  0.00000,  1
1004,  2127,  '99',  0.17357,  1.00133,  0.00000,  0.00,  0.00,  0.00,  0.00000,  0.000,  0.00000,  0.00000,  0.00000,  0.00000,  1
1004,  3034,  '99',  0.36959,  2.83871,  0.00000,  0.00,  0.00,  0.00,  0.00000,  0.000,  0.00000,  0.00000,  0.00000,  0.00000,  1
1004,  3039,  '99',  0.03307,  0.33798,  0.00000,  0.00,  0.00,  0.00,  0.00000,  0.000,  0.00000,  0.00000,  0.00000,  0.00000,  1
1004,  3048,  '99',  0.04548,  0.33696,  0.00000,  0.00,  0.00,  0.00,  0.00000,  0.000,  0.00000,  0.00000,  0.00000,  0.00000,  1
1004,  3081,  '99',  0.04037,  0.42773,  0.00000,  0.00,  0.00,  0.00,  0.00000,  0.000,  0.00000,  0.00000,  0.00000,  0.00000,  1
1004,  3086,  '99',  0.55488,  3.93492,  0.00000,  0.00,  0.00,  0.00,  0.00000,  0.000,  0.00000,  0.00000,  0.00000,  0.00000,  1
1004,  3087,  '99',  0.55488,  3.93492,  0.00000,  0.00,  0.00,  0.00,  0.00000,  0.000,  0.00000,  0.00000,  0.00000,  0.00000,  1
1004,  3098,  '99',  0.03026,  0.47029,  0.00000,  0.00,  0.00,  0.00,  0.00000,  0.000,  0.00000,  0.00000,  0.00000,  0.00000,  1
1004,  3110,  '99',  0.06268,  0.51378,  0.00000,  0.00,  0.00,  0.00,  0.00000,  0.000,  0.00000,  0.00000,  0.00000,  0.00000,  1
1004,  3118,  '99',  0.21419,  2.10602,  0.00000,  0.00,  0.00,  0.00,  0.00000,  0.000,  0.00000,  0.00000,  0.00000,  0.00000,  1
1004,  3129,  '99',  1.39129,  4.34994,  0.00000,  0.00,  0.00,  0.00,  0.00000,  0.000,  0.00000,  0.00000,  0.00000,  0.00000,  1
1009,  1033,  '99',  0.07879,  0.70874,  0.00000,  0.00,  0.00,  0.00,  0.00000,  0.000,  0.00000,  0.00000,  0.00000,  0.00000,  1
1009,  1039,  '99',  1.38792,  4.73535,  0.00000,  0.00,  0.00,  0.00,  0.00000,  0.000,  0.00000,  0.00000,  0.00000,  0.00000,  1
1009,  1070,  '99',  -0.00808,  0.40190,  0.00000,  0.00,  0.00,  0.00,  0.00000,  0.000,  0.00000,  0.00000,  0.00000,  0.00000,  1
1009,  1082,  '99',  0.09858,  0.46281,  0.00000,  0.00,  0.00,  0.00,  0.00000,  0.000,  0.00000,  0.00000,  0.00000,  0.00000,  1
1009,  1088,  '99',  0.64286,  2.67023,  0.00000,  0.00,  0.00,  0.00,  0.00000,  0.000,  0.00000,  0.00000,  0.00000,  0.00000,  1
1021,  1026,  '99',  0.01389,  0.81994,  0.00000,  0.00,  0.00,  0.00,  0.00000,  0.000,  0.00000,  0.00000,  0.00000,  0.00000,  1
1021,  1035,  '99',  0.64435,  4.15420,  0.00000,  0.00,  0.00,  0.00,  0.00000,  0.000,  0.00000,  0.00000,  0.00000,  0.00000,  1
1021,  1042,  '99',  0.55443,  4.20605,  0.00000,  0.00,  0.00,  0.00,  0.00000,  0.000,  0.00000,  0.00000,  0.00000,  0.00000,  1
1021,  1084,  '99',  0.01197,  0.19520,  0.00000,  0.00,  0.00,  0.00,  0.00000,  0.000,  0.00000,  0.00000,  0.00000,  0.00000,  1
1021,  3048,  '99',  0.55041,  4.60668,  0.00000,  0.00,  0.00,  0.00,  0.00000,  0.000,  0.00000,  0.00000,  0.00000,  0.00000,  1
1021,  3112,  '99',  0.45074,  2.35445,  0.00000,  0.00,  0.00,  0.00,  0.00000,  0.000,  0.00000,  0.00000,  0.00000,  0.00000,  1
1021,  3113,  '99',  0.45074,  2.35445,  0.00000,  0.00,  0.00,  0.00,  0.00000,  0.000,  0.00000,  0.00000,  0.00000,  0.00000,  1
1023,  2100,  '99',  0.09650,  4.32047,  0.00000,  0.00,  0.00,  0.00,  0.00000,  0.000,  0.00000,  0.00000,  0.00000,  0.00000,  1
1023,  3098,  '99',  0.01810,  3.10234,  0.00000,  0.00,  0.00,  0.00,  0.00000,  0.000,  0.00000,  0.00000,  0.00000,  0.00000,  1
1023,  3110,  '99',  0.08567,  0.92636,  0.00000,  0.00,  0.00,  0.00,  0.00000,  0.000,  0.00000,  0.00000,  0.00000,  0.00000,  1
1026,  1035,  '99',  0.42455,  2.87807,  0.00000,  0.00,  0.00,  0.00,  0.00000,  0.000,  0.00000,  0.00000,  0.00000,  0.00000,  1
1026,  1042,  '99',  0.36231,  2.91747,  0.00000,  0.00,  0.00,  0.00,  0.00000,  0.000,  0.00000,  0.00000,  0.00000,  0.00000,  1
1026,  1066,  '99',  0.53132,  3.90157,  0.00000,  0.00,  0.00,  0.00,  0.00000,  0.000,  0.00000,  0.00000,  0.00000,  0.00000,  1
1026,  1084,  '99',  0.07246,  0.48748,  0.00000,  0.00,  0.00,  0.00,  0.00000,  0.000,  0.00000,  0.00000,  0.00000,  0.00000,  1
1033,  1039,  '99',  0.07398,  0.91277,  0.00000,  0.00,  0.00,  0.00,  0.00000,  0.000,  0.00000,  0.00000,  0.00000,  0.00000,  1
1033,  1070,  '99',  0.11771,  0.88385,  0.00000,  0.00,  0.00,  0.00,  0.00000,  0.000,  0.00000,  0.00000,  0.00000,  0.00000,  1
1033,  1081,  '99',  0.00300,  0.03093,  0.00000,  0.00,  0.00,  0.00,  0.00000,  0.000,  0.00000,  0.00000,  0.00000,  0.00000,  1
1033,  1082,  '99',  0.10732,  0.36212,  0.00000,  0.00,  0.00,  0.00,  0.00000,  0.000,  0.00000,  0.00000,  0.00000,  0.00000,  1
1033,  1088,  '99',  0.01635,  0.50940,  0.00000,  0.00,  0.00,  0.00,  0.00000,  0.000,  0.00000,  0.00000,  0.00000,  0.00000,  1
1033,  3020,  '99',  0.03698,  0.84820,  0.00000,  0.00,  0.00,  0.00,  0.00000,  0.000,  0.00000,  0.00000,  0.00000,  0.00000,  1
1033,  4115,  '99',  0.16308,  3.79081,  0.00000,  0.00,  0.00,  0.00,  0.00000,  0.000,  0.00000,  0.00000,  0.00000,  0.00000,  1
1033,  4116,  '99',  0.21067,  3.98694,  0.00000,  0.00,  0.00,  0.00,  0.00000,  0.000,  0.00000,  0.00000,  0.00000,  0.00000,  1
1033,  4195,  '99',  0.30650,  2.72016,  0.00000,  0.00,  0.00,  0.00,  0.00000,  0.000,  0.00000,  0.00000,  0.00000,  0.00000,  1
1035,  1042,  '99',  0.00837,  0.65445,  0.00000,  0.00,  0.00,  0.00,  0.00000,  0.000,  0.00000,  0.00000,  0.00000,  0.00000,  1
1035,  1057,  '99',  0.10056,  2.22634,  0.00000,  0.00,  0.00,  0.00,  0.00000,  0.000,  0.00000,  0.00000,  0.00000,  0.00000,  1
1035,  1066,  '99',  0.03383,  0.92332,  0.00000,  0.00,  0.00,  0.00,  0.00000,  0.000,  0.00000,  0.00000,  0.00000,  0.00000,  1
1035,  1084,  '99',  0.67643,  2.27436,  0.00000,  0.00,  0.00,  0.00,  0.00000,  0.000,  0.00000,  0.00000,  0.00000,  0.00000,  1
1035,  1088,  '99',  0.05693,  0.92956,  0.00000,  0.00,  0.00,  0.00,  0.00000,  0.000,  0.00000,  0.00000,  0.00000,  0.00000,  1
1039,  1048,  '99',  0.05476,  3.39596,  0.00000,  0.00,  0.00,  0.00,  0.00000,  0.000,  0.00000,  0.00000,  0.00000,  0.00000,  1
1039,  1053,  '99',  -0.03940,  4.54469,  0.00000,  0.00,  0.00,  0.00,  0.00000,  0.000,  0.00000,  0.00000,  0.00000,  0.00000,  1
1039,  1082,  '99',  0.01244,  0.17234,  0.00000,  0.00,  0.00,  0.00,  0.00000,  0.000,  0.00000,  0.00000,  0.00000,  0.00000,  1
1039,  1088,  '99',  0.64887,  3.18854,  0.00000,  0.00,  0.00,  0.00,  0.00000,  0.000,  0.00000,  0.00000,  0.00000,  0.00000,  1
1042,  1057,  '99',  -0.01079,  1.64621,  0.00000,  0.00,  0.00,  0.00,  0.00000,  0.000,  0.00000,  0.00000,  0.00000,  0.00000,  1
1042,  1066,  '99',  -0.01428,  0.56287,  0.00000,  0.00,  0.00,  0.00,  0.00000,  0.000,  0.00000,  0.00000,  0.00000,  0.00000,  1
1042,  1084,  '99',  0.61367,  2.25568,  0.00000,  0.00,  0.00,  0.00,  0.00000,  0.000,  0.00000,  0.00000,  0.00000,  0.00000,  1
1042,  1088,  '99',  0.27320,  3.38550,  0.00000,  0.00,  0.00,  0.00,  0.00000,  0.000,  0.00000,  0.00000,  0.00000,  0.00000,  1
1048,  1049,  '99',  -0.00079,  0.36798,  0.00000,  0.00,  0.00,  0.00,  0.00000,  0.000,  0.00000,  0.00000,  0.00000,  0.00000,  1
1048,  1053,  '99',  0.00015,  0.27509,  0.00000,  0.00,  0.00,  0.00,  0.00000,  0.000,  0.00000,  0.00000,  0.00000,  0.00000,  1
1048,  1082,  '99',  0.43400,  1.93366,  0.00000,  0.00,  0.00,  0.00,  0.00000,  0.000,  0.00000,  0.00000,  0.00000,  0.00000,  1
1048,  1090,  '99',  0.07408,  0.48546,  0.00000,  0.00,  0.00,  0.00,  0.00000,  0.000,  0.00000,  0.00000,  0.00000,  0.00000,  1
1049,  1053,  '99',  -0.01326,  0.49223,  0.00000,  0.00,  0.00,  0.00,  0.00000,  0.000,  0.00000,  0.00000,  0.00000,  0.00000,  1
1049,  1082,  '99',  0.68146,  3.48127,  0.00000,  0.00,  0.00,  0.00,  0.00000,  0.000,  0.00000,  0.00000,  0.00000,  0.00000,  1
1049,  1090,  '99',  0.10867,  0.87229,  0.00000,  0.00,  0.00,  0.00,  0.00000,  0.000,  0.00000,  0.00000,  0.00000,  0.00000,  1
1053,  1081,  '99',  0.00299,  0.02991,  0.00000,  0.00,  0.00,  0.00,  0.00000,  0.000,  0.00000,  0.00000,  0.00000,  0.00000,  1
1053,  1082,  '99',  0.51643,  2.60111,  0.00000,  0.00,  0.00,  0.00,  0.00000,  0.000,  0.00000,  0.00000,  0.00000,  0.00000,  1
1053,  1090,  '99',  0.08299,  0.65187,  0.00000,  0.00,  0.00,  0.00,  0.00000,  0.000,  0.00000,  0.00000,  0.00000,  0.00000,  1
1057,  1066,  '99',  -0.02631,  1.43697,  0.00000,  0.00,  0.00,  0.00,  0.00000,  0.000,  0.00000,  0.00000,  0.00000,  0.00000,  1
1057,  1076,  '99',  0.19566,  3.40372,  0.00000,  0.00,  0.00,  0.00,  0.00000,  0.000,  0.00000,  0.00000,  0.00000,  0.00000,  1
1057,  1081,  '99',  0.25034,  4.37896,  0.00000,  0.00,  0.00,  0.00,  0.00000,  0.000,  0.00000,  0.00000,  0.00000,  0.00000,  1
1057,  1084,  '99',  0.49833,  2.68150,  0.00000,  0.00,  0.00,  0.00,  0.00000,  0.000,  0.00000,  0.00000,  0.00000,  0.00000,  1
1057,  1090,  '99',  0.45015,  3.19622,  0.00000,  0.00,  0.00,  0.00,  0.00000,  0.000,  0.00000,  0.00000,  0.00000,  0.00000,  1
1057,  3048,  '99',  0.15455,  2.96197,  0.00000,  0.00,  0.00,  0.00,  0.00000,  0.000,  0.00000,  0.00000,  0.00000,  0.00000,  1
1066,  1084,  '99',  0.81538,  2.86911,  0.00000,  0.00,  0.00,  0.00,  0.00000,  0.000,  0.00000,  0.00000,  0.00000,  0.00000,  1
...